
OS:Version,
  {e4515257-6f5a-4bef-9698-142b0a43e8e7}, !- Handle
  3.5.1;                                  !- Version Identifier

OS:SimulationControl,
  {d8469db8-9ab1-4475-ae47-0489c95b79ba}, !- Handle
  Yes,                                    !- Do Zone Sizing Calculation
  Yes,                                    !- Do System Sizing Calculation
  ,                                       !- Do Plant Sizing Calculation
  No,                                     !- Run Simulation for Sizing Periods
  Yes;                                    !- Run Simulation for Weather File Run Periods

OS:Timestep,
  {dab9a169-46d0-48fa-a3cd-c2fb5de99ce5}, !- Handle
  6;                                      !- Number of Timesteps per Hour

OS:RunPeriod,
  {008c2ea0-b175-47b4-8a8e-d5eb94a1f134}, !- Handle
  Run Period 1,                           !- Name
  1,                                      !- Begin Month
  1,                                      !- Begin Day of Month
  12,                                     !- End Month
  31,                                     !- End Day of Month
  No,                                     !- Use Weather File Holidays and Special Days
  No,                                     !- Use Weather File Daylight Saving Period
  No,                                     !- Apply Weekend Holiday Rule
  Yes,                                    !- Use Weather File Rain Indicators
  Yes,                                    !- Use Weather File Snow Indicators
  1;                                      !- Number of Times Runperiod to be Repeated

OS:SurfaceConvectionAlgorithm:Inside,
  {a67f77b3-1e12-4826-b211-e520c6ee8140}, !- Handle
  TARP;                                   !- Algorithm

OS:SurfaceConvectionAlgorithm:Outside,
  {c44a5170-dc92-4173-8d3b-6c99da51c6e6}, !- Handle
  DOE-2;                                  !- Algorithm

OS:HeatBalanceAlgorithm,
  {3eabeb92-9530-4ff3-8d2a-0e2951595d4a}, !- Handle
  ConductionTransferFunction,             !- Algorithm
  200;                                    !- Surface Temperature Upper Limit {C}

OS:ZoneAirHeatBalanceAlgorithm,
  {116a366a-4cbc-41da-a2e7-2ff043c0e458}, !- Handle
  ThirdOrderBackwardDifference;           !- Algorithm

OS:ConvergenceLimits,
  {81a678da-fa75-498d-89cd-00112d9cb38d}, !- Handle
  1;                                      !- Minimum System Timestep {minutes}

OS:ShadowCalculation,
  {f8457e80-a1e2-4afe-8af8-d24616866d2b}, !- Handle
  PolygonClipping,                        !- Shading Calculation Method
  ,                                       !- Shading Calculation Update Frequency Method
  20,                                     !- Shading Calculation Update Frequency
  15000,                                  !- Maximum Figures in Shadow Overlap Calculations
  ,                                       !- Polygon Clipping Algorithm
  512,                                    !- Pixel Counting Resolution
  ,                                       !- Sky Diffuse Modeling Algorithm
  No,                                     !- Output External Shading Calculation Results
  No,                                     !- Disable Self-Shading Within Shading Zone Groups
  No;                                     !- Disable Self-Shading From Shading Zone Groups to Other Zones

OS:Site,
  {dc35beea-dbeb-4775-947a-89f644a1c32c}, !- Handle
  Site 1,                                 !- Name
  41.77,                                  !- Latitude {deg}
  -87.75,                                 !- Longitude {deg}
  -6,                                     !- Time Zone {hr}
  190,                                    !- Elevation {m}
  ;                                       !- Terrain

OS:Site:GroundTemperature:BuildingSurface,
  {df791edb-53d5-4f14-89c9-e35d620f244b}, !- Handle
  19.527,                                 !- January Ground Temperature {C}
  19.502,                                 !- February Ground Temperature {C}
  19.536,                                 !- March Ground Temperature {C}
  19.598,                                 !- April Ground Temperature {C}
  20.002,                                 !- May Ground Temperature {C}
  21.64,                                  !- June Ground Temperature {C}
  22.225,                                 !- July Ground Temperature {C}
  22.375,                                 !- August Ground Temperature {C}
  21.449,                                 !- September Ground Temperature {C}
  20.121,                                 !- October Ground Temperature {C}
  19.802,                                 !- November Ground Temperature {C}
  19.633;                                 !- December Ground Temperature {C}

OS:Site:GroundTemperature:Deep,
  {9f3e2c0b-2b85-4a44-ac68-fb97f8b049b9}, !- Handle
  19.527,                                 !- January Deep Ground Temperature {C}
  19.502,                                 !- February Deep Ground Temperature {C}
  19.536,                                 !- March Deep Ground Temperature {C}
  19.598,                                 !- April Deep Ground Temperature {C}
  20.002,                                 !- May Deep Ground Temperature {C}
  21.64,                                  !- June Deep Ground Temperature {C}
  22.225,                                 !- July Deep Ground Temperature {C}
  22.375,                                 !- August Deep Ground Temperature {C}
  21.449,                                 !- September Deep Ground Temperature {C}
  20.121,                                 !- October Deep Ground Temperature {C}
  19.802,                                 !- November Deep Ground Temperature {C}
  19.633;                                 !- December Deep Ground Temperature {C}

OS:Site:WaterMainsTemperature,
  {b37dd47f-ad55-41f2-b8af-5219ff4a346b}, !- Handle
  Correlation,                            !- Calculation Method
  ,                                       !- Temperature Schedule Name
  9.69,                                   !- Annual Average Outdoor Air Temperature {C}
  28.1;                                   !- Maximum Difference In Monthly Average Outdoor Air Temperatures {deltaC}

OS:SizingPeriod:DesignDay,
  {9fe01af6-43c2-4614-bf41-f29615e787a3}, !- Handle
  Sizing Period Design Day 1,             !- Name
  -20.6,                                  !- Maximum Dry-Bulb Temperature {C}
  0,                                      !- Daily Dry-Bulb Temperature Range {deltaC}
  99063,                                  !- Barometric Pressure {Pa}
  4.9,                                    !- Wind Speed {m/s}
  270,                                    !- Wind Direction {deg}
  0,                                      !- Sky Clearness
  No,                                     !- Rain Indicator
  No,                                     !- Snow Indicator
  21,                                     !- Day of Month
  1,                                      !- Month
  WinterDesignDay,                        !- Day Type
  No,                                     !- Daylight Saving Time Indicator
  WetBulb,                                !- Humidity Condition Type
  ,                                       !- Humidity Condition Day Schedule Name
  -20.6,                                  !- Wetbulb or DewPoint at Maximum Dry-Bulb {C}
  ,                                       !- Humidity Ratio at Maximum Dry-Bulb {kgWater/kgDryAir}
  ,                                       !- Enthalpy at Maximum Dry-Bulb {J/kg}
  ;                                       !- Dry-Bulb Temperature Range Modifier Type

OS:SizingPeriod:DesignDay,
  {6ab9145e-340a-43fd-a778-81b82cdf2ede}, !- Handle
  Sizing Period Design Day 2,             !- Name
  33.2,                                   !- Maximum Dry-Bulb Temperature {C}
  10.7,                                   !- Daily Dry-Bulb Temperature Range {deltaC}
  99063,                                  !- Barometric Pressure {Pa}
  5.3,                                    !- Wind Speed {m/s}
  230,                                    !- Wind Direction {deg}
  1,                                      !- Sky Clearness
  No,                                     !- Rain Indicator
  No,                                     !- Snow Indicator
  21,                                     !- Day of Month
  7,                                      !- Month
  SummerDesignDay,                        !- Day Type
  No,                                     !- Daylight Saving Time Indicator
  WetBulb,                                !- Humidity Condition Type
  ,                                       !- Humidity Condition Day Schedule Name
  23.8,                                   !- Wetbulb or DewPoint at Maximum Dry-Bulb {C}
  ,                                       !- Humidity Ratio at Maximum Dry-Bulb {kgWater/kgDryAir}
  ,                                       !- Enthalpy at Maximum Dry-Bulb {J/kg}
  ;                                       !- Dry-Bulb Temperature Range Modifier Type

OS:ScheduleTypeLimits,
  {b97cec10-ff51-4cff-941b-0d17d5d508eb}, !- Handle
  Temperature,                            !- Name
  -60,                                    !- Lower Limit Value
  200,                                    !- Upper Limit Value
  CONTINUOUS,                             !- Numeric Type
  Temperature;                            !- Unit Type

OS:DefaultScheduleSet,
  {84ed10fc-ace3-4d4e-a683-9ceaace881b2}, !- Handle
  Default Schedules,                      !- Name
  ,                                       !- Hours of Operation Schedule Name
  {8f75c5d2-8bd5-4fd4-ba89-5aa736250e98}, !- Number of People Schedule Name
  {b5ae929d-01c9-4a56-b594-debb3db93937}, !- People Activity Level Schedule Name
  {4b4efcc0-3d39-41b9-8ad0-b2963aa39a51}, !- Lighting Schedule Name
  {176fad0f-24c8-4603-9693-f6b39b21d698}, !- Electric Equipment Schedule Name
  {fbd6647d-a18b-4eb4-926f-4da12e244681}, !- Gas Equipment Schedule Name
  {2ba9f826-2914-42da-8b4f-f380b020c556}, !- Hot Water Equipment Schedule Name
  {d605e3dd-0a6c-41d7-9d8a-0fc3c202830a}, !- Infiltration Schedule Name
  ,                                       !- Steam Equipment Schedule Name
  ;                                       !- Other Equipment Schedule Name

OS:Schedule:Ruleset,
  {8f75c5d2-8bd5-4fd4-ba89-5aa736250e98}, !- Handle
  Medium Office Number of People Schedule, !- Name
  {d4b08710-b6c2-42f2-90d8-315ef1472ac5}, !- Schedule Type Limits Name
  {1c9101cf-9d53-4b3b-8bc0-05465ea47f7e}, !- Default Day Schedule Name
  {63a74f2f-d3c9-47bd-8b8d-8ee83ccaae48}; !- Summer Design Day Schedule Name

OS:Schedule:Day,
  {1c9101cf-9d53-4b3b-8bc0-05465ea47f7e}, !- Handle
  Medium Office Number of People All Other Days Schedule, !- Name
  {d4b08710-b6c2-42f2-90d8-315ef1472ac5}, !- Schedule Type Limits Name
  ,                                       !- Interpolate to Timestep
  24,                                     !- Hour 1
  0,                                      !- Minute 1
  0;                                      !- Value Until Time 1

OS:Schedule:Day,
  {2950a340-6a2f-4ab7-9eb3-d01269bae3ed}, !- Handle
  Medium Office Number of People Summer Design Day Schedule, !- Name
  ,                                       !- Schedule Type Limits Name
  ,                                       !- Interpolate to Timestep
  6,                                      !- Hour 1
  0,                                      !- Minute 1
  0,                                      !- Value Until Time 1
  22,                                     !- Hour 2
  0,                                      !- Minute 2
  1,                                      !- Value Until Time 2
  24,                                     !- Hour 3
  0,                                      !- Minute 3
  0.05;                                   !- Value Until Time 3

OS:Schedule:Day,
  {63a74f2f-d3c9-47bd-8b8d-8ee83ccaae48}, !- Handle
  Medium Office Number of People Summer Design Day Schedule 1, !- Name
  {d4b08710-b6c2-42f2-90d8-315ef1472ac5}, !- Schedule Type Limits Name
  ,                                       !- Interpolate to Timestep
  6,                                      !- Hour 1
  0,                                      !- Minute 1
  0,                                      !- Value Until Time 1
  22,                                     !- Hour 2
  0,                                      !- Minute 2
  1,                                      !- Value Until Time 2
  24,                                     !- Hour 3
  0,                                      !- Minute 3
  0.05;                                   !- Value Until Time 3

OS:Schedule:Rule,
  {1b752da5-a9e5-40c0-ad09-b377a036f09d}, !- Handle
  Medium Office Number of People Schedule Weekdays Rule, !- Name
  {8f75c5d2-8bd5-4fd4-ba89-5aa736250e98}, !- Schedule Ruleset Name
  1,                                      !- Rule Order
  {d2f9c6d3-23d0-4a8d-bab2-c4eff892ae71}, !- Day Schedule Name
  ,                                       !- Apply Sunday
  Yes,                                    !- Apply Monday
  Yes,                                    !- Apply Tuesday
  Yes,                                    !- Apply Wednesday
  Yes,                                    !- Apply Thursday
  Yes;                                    !- Apply Friday

OS:Schedule:Day,
  {d2f9c6d3-23d0-4a8d-bab2-c4eff892ae71}, !- Handle
  Medium Office Number of People Weekdays Schedule, !- Name
  {d4b08710-b6c2-42f2-90d8-315ef1472ac5}, !- Schedule Type Limits Name
  ,                                       !- Interpolate to Timestep
  6,                                      !- Hour 1
  0,                                      !- Minute 1
  0,                                      !- Value Until Time 1
  7,                                      !- Hour 2
  0,                                      !- Minute 2
  0.1,                                    !- Value Until Time 2
  8,                                      !- Hour 3
  0,                                      !- Minute 3
  0.2,                                    !- Value Until Time 3
  12,                                     !- Hour 4
  0,                                      !- Minute 4
  0.95,                                   !- Value Until Time 4
  13,                                     !- Hour 5
  0,                                      !- Minute 5
  0.5,                                    !- Value Until Time 5
  17,                                     !- Hour 6
  0,                                      !- Minute 6
  0.95,                                   !- Value Until Time 6
  18,                                     !- Hour 7
  0,                                      !- Minute 7
  0.7,                                    !- Value Until Time 7
  20,                                     !- Hour 8
  0,                                      !- Minute 8
  0.4,                                    !- Value Until Time 8
  22,                                     !- Hour 9
  0,                                      !- Minute 9
  0.1,                                    !- Value Until Time 9
  24,                                     !- Hour 10
  0,                                      !- Minute 10
  0.05;                                   !- Value Until Time 10

OS:Schedule:Rule,
  {1877bd06-270d-4974-bc94-09e4f27e7156}, !- Handle
  Medium Office Number of People Schedule Saturday Rule, !- Name
  {8f75c5d2-8bd5-4fd4-ba89-5aa736250e98}, !- Schedule Ruleset Name
  0,                                      !- Rule Order
  {bca9e2f4-0e3a-48c9-8f7f-1d9dc512c600}, !- Day Schedule Name
  ,                                       !- Apply Sunday
  ,                                       !- Apply Monday
  ,                                       !- Apply Tuesday
  ,                                       !- Apply Wednesday
  ,                                       !- Apply Thursday
  ,                                       !- Apply Friday
  Yes;                                    !- Apply Saturday

OS:Schedule:Day,
  {bca9e2f4-0e3a-48c9-8f7f-1d9dc512c600}, !- Handle
  Medium Office Number of People Saturday Schedule, !- Name
  {d4b08710-b6c2-42f2-90d8-315ef1472ac5}, !- Schedule Type Limits Name
  ,                                       !- Interpolate to Timestep
  6,                                      !- Hour 1
  0,                                      !- Minute 1
  0,                                      !- Value Until Time 1
  8,                                      !- Hour 2
  0,                                      !- Minute 2
  0.1,                                    !- Value Until Time 2
  14,                                     !- Hour 3
  0,                                      !- Minute 3
  0.5,                                    !- Value Until Time 3
  17,                                     !- Hour 4
  0,                                      !- Minute 4
  0.1,                                    !- Value Until Time 4
  24,                                     !- Hour 5
  0,                                      !- Minute 5
  0;                                      !- Value Until Time 5

OS:ScheduleTypeLimits,
  {d4b08710-b6c2-42f2-90d8-315ef1472ac5}, !- Handle
  Fractional,                             !- Name
  0,                                      !- Lower Limit Value
  1,                                      !- Upper Limit Value
  Continuous;                             !- Numeric Type

OS:Schedule:Ruleset,
  {b5ae929d-01c9-4a56-b594-debb3db93937}, !- Handle
  Medium Office People Activity Level Schedule, !- Name
  {2fca6229-46e5-4a69-952a-be753bd1ff9f}, !- Schedule Type Limits Name
  {49829029-0ea7-46e9-b885-892e29efa53c}; !- Default Day Schedule Name

OS:Schedule:Day,
  {49829029-0ea7-46e9-b885-892e29efa53c}, !- Handle
  Medium Office People Activity Level All Days Schedule, !- Name
  {2fca6229-46e5-4a69-952a-be753bd1ff9f}, !- Schedule Type Limits Name
  ,                                       !- Interpolate to Timestep
  24,                                     !- Hour 1
  0,                                      !- Minute 1
  120;                                    !- Value Until Time 1

OS:ScheduleTypeLimits,
  {2fca6229-46e5-4a69-952a-be753bd1ff9f}, !- Handle
  ActivityLevel,                          !- Name
  0,                                      !- Lower Limit Value
  ,                                       !- Upper Limit Value
  Continuous,                             !- Numeric Type
  ActivityLevel;                          !- Unit Type

OS:Schedule:Ruleset,
  {4b4efcc0-3d39-41b9-8ad0-b2963aa39a51}, !- Handle
  Medium Office Lighting Schedule,        !- Name
  {d4b08710-b6c2-42f2-90d8-315ef1472ac5}, !- Schedule Type Limits Name
  {38c63065-14e1-4680-86b5-5d68c43cd9a4}, !- Default Day Schedule Name
  {f4fb2cad-090d-49ea-a292-287bcd3b2c7d}, !- Summer Design Day Schedule Name
  {381c8d53-dc1a-4c2f-9ee6-dae04aba7ded}; !- Winter Design Day Schedule Name

OS:Schedule:Day,
  {38c63065-14e1-4680-86b5-5d68c43cd9a4}, !- Handle
  Medium Office Lighting All Other Days Schedule, !- Name
  {d4b08710-b6c2-42f2-90d8-315ef1472ac5}, !- Schedule Type Limits Name
  ,                                       !- Interpolate to Timestep
  24,                                     !- Hour 1
  0,                                      !- Minute 1
  0.05;                                   !- Value Until Time 1

OS:Schedule:Day,
  {0861136e-19f6-416a-b9a8-284913025c2b}, !- Handle
  Medium Office Lighting Summer Design Day Schedule, !- Name
  ,                                       !- Schedule Type Limits Name
  ,                                       !- Interpolate to Timestep
  6,                                      !- Hour 1
  0,                                      !- Minute 1
  1,                                      !- Value Until Time 1
  24,                                     !- Hour 2
  0,                                      !- Minute 2
  0;                                      !- Value Until Time 2

OS:Schedule:Day,
  {f4fb2cad-090d-49ea-a292-287bcd3b2c7d}, !- Handle
  Medium Office Lighting Summer Design Day Schedule 1, !- Name
  {d4b08710-b6c2-42f2-90d8-315ef1472ac5}, !- Schedule Type Limits Name
  ,                                       !- Interpolate to Timestep
  6,                                      !- Hour 1
  0,                                      !- Minute 1
  1,                                      !- Value Until Time 1
  24,                                     !- Hour 2
  0,                                      !- Minute 2
  0;                                      !- Value Until Time 2

OS:Schedule:Day,
  {a6813487-bc29-4002-a0ba-5fc6621ab35f}, !- Handle
  Medium Office Lighting Winter Design Day Schedule, !- Name
  ,                                       !- Schedule Type Limits Name
  ,                                       !- Interpolate to Timestep
  24,                                     !- Hour 1
  0,                                      !- Minute 1
  0;                                      !- Value Until Time 1

OS:Schedule:Day,
  {381c8d53-dc1a-4c2f-9ee6-dae04aba7ded}, !- Handle
  Medium Office Lighting Winter Design Day Schedule 1, !- Name
  {d4b08710-b6c2-42f2-90d8-315ef1472ac5}, !- Schedule Type Limits Name
  ,                                       !- Interpolate to Timestep
  24,                                     !- Hour 1
  0,                                      !- Minute 1
  0;                                      !- Value Until Time 1

OS:Schedule:Rule,
  {cc4e7a6d-f147-4b7d-b805-aa1fc34cddd5}, !- Handle
  Medium Office Lighting Schedule Weekdays Rule, !- Name
  {4b4efcc0-3d39-41b9-8ad0-b2963aa39a51}, !- Schedule Ruleset Name
  1,                                      !- Rule Order
  {8b437228-b870-4e23-84e5-1508cef5ac86}, !- Day Schedule Name
  ,                                       !- Apply Sunday
  Yes,                                    !- Apply Monday
  Yes,                                    !- Apply Tuesday
  Yes,                                    !- Apply Wednesday
  Yes,                                    !- Apply Thursday
  Yes;                                    !- Apply Friday

OS:Schedule:Day,
  {8b437228-b870-4e23-84e5-1508cef5ac86}, !- Handle
  Medium Office Lighting Weekdays Schedule, !- Name
  {d4b08710-b6c2-42f2-90d8-315ef1472ac5}, !- Schedule Type Limits Name
  ,                                       !- Interpolate to Timestep
  5,                                      !- Hour 1
  0,                                      !- Minute 1
  0.05,                                   !- Value Until Time 1
  7,                                      !- Hour 2
  0,                                      !- Minute 2
  0.1,                                    !- Value Until Time 2
  8,                                      !- Hour 3
  0,                                      !- Minute 3
  0.3,                                    !- Value Until Time 3
  17,                                     !- Hour 4
  0,                                      !- Minute 4
  0.9,                                    !- Value Until Time 4
  18,                                     !- Hour 5
  0,                                      !- Minute 5
  0.7,                                    !- Value Until Time 5
  20,                                     !- Hour 6
  0,                                      !- Minute 6
  0.5,                                    !- Value Until Time 6
  22,                                     !- Hour 7
  0,                                      !- Minute 7
  0.3,                                    !- Value Until Time 7
  23,                                     !- Hour 8
  0,                                      !- Minute 8
  0.1,                                    !- Value Until Time 8
  24,                                     !- Hour 9
  0,                                      !- Minute 9
  0.05;                                   !- Value Until Time 9

OS:Schedule:Rule,
  {b0043fa6-c6e7-4c50-a0d2-8e2749e1d319}, !- Handle
  Medium Office Lighting Schedule Saturday Rule, !- Name
  {4b4efcc0-3d39-41b9-8ad0-b2963aa39a51}, !- Schedule Ruleset Name
  0,                                      !- Rule Order
  {462655c7-7d92-4be7-b72c-19a62fc7fed9}, !- Day Schedule Name
  ,                                       !- Apply Sunday
  ,                                       !- Apply Monday
  ,                                       !- Apply Tuesday
  ,                                       !- Apply Wednesday
  ,                                       !- Apply Thursday
  ,                                       !- Apply Friday
  Yes;                                    !- Apply Saturday

OS:Schedule:Day,
  {462655c7-7d92-4be7-b72c-19a62fc7fed9}, !- Handle
  Medium Office Lighting Saturday Schedule, !- Name
  {d4b08710-b6c2-42f2-90d8-315ef1472ac5}, !- Schedule Type Limits Name
  ,                                       !- Interpolate to Timestep
  6,                                      !- Hour 1
  0,                                      !- Minute 1
  0.05,                                   !- Value Until Time 1
  8,                                      !- Hour 2
  0,                                      !- Minute 2
  0.1,                                    !- Value Until Time 2
  14,                                     !- Hour 3
  0,                                      !- Minute 3
  0.5,                                    !- Value Until Time 3
  17,                                     !- Hour 4
  0,                                      !- Minute 4
  0.15,                                   !- Value Until Time 4
  24,                                     !- Hour 5
  0,                                      !- Minute 5
  0.05;                                   !- Value Until Time 5

OS:Schedule:Ruleset,
  {176fad0f-24c8-4603-9693-f6b39b21d698}, !- Handle
  Medium Office Electric Equipment Schedule, !- Name
  {d4b08710-b6c2-42f2-90d8-315ef1472ac5}, !- Schedule Type Limits Name
  {546ace42-1523-45d4-a27f-a4a96e51e196}, !- Default Day Schedule Name
  {0ce058cb-4c35-401f-966e-7f3ce902b61e}, !- Summer Design Day Schedule Name
  {58c84d1d-1a97-41e4-842a-8e258e19f477}; !- Winter Design Day Schedule Name

OS:Schedule:Day,
  {546ace42-1523-45d4-a27f-a4a96e51e196}, !- Handle
  Medium Office Electric Equipment All Other Days Schedule, !- Name
  {d4b08710-b6c2-42f2-90d8-315ef1472ac5}, !- Schedule Type Limits Name
  ,                                       !- Interpolate to Timestep
  24,                                     !- Hour 1
  0,                                      !- Minute 1
  0.3;                                    !- Value Until Time 1

OS:Schedule:Day,
  {5dd5d21b-a113-4ca6-9b88-380247268b1b}, !- Handle
  Medium Office Electric Equipment Summer Design Day Schedule, !- Name
  ,                                       !- Schedule Type Limits Name
  ,                                       !- Interpolate to Timestep
  6,                                      !- Hour 1
  0,                                      !- Minute 1
  1,                                      !- Value Until Time 1
  24,                                     !- Hour 2
  0,                                      !- Minute 2
  0;                                      !- Value Until Time 2

OS:Schedule:Day,
  {0ce058cb-4c35-401f-966e-7f3ce902b61e}, !- Handle
  Medium Office Electric Equipment Summer Design Day Schedule 1, !- Name
  {d4b08710-b6c2-42f2-90d8-315ef1472ac5}, !- Schedule Type Limits Name
  ,                                       !- Interpolate to Timestep
  6,                                      !- Hour 1
  0,                                      !- Minute 1
  1,                                      !- Value Until Time 1
  24,                                     !- Hour 2
  0,                                      !- Minute 2
  0;                                      !- Value Until Time 2

OS:Schedule:Day,
  {28e3975e-8536-4dac-a195-1b478aa8b22a}, !- Handle
  Medium Office Electric Equipment Winter Design Day Schedule, !- Name
  ,                                       !- Schedule Type Limits Name
  ,                                       !- Interpolate to Timestep
  24,                                     !- Hour 1
  0,                                      !- Minute 1
  0;                                      !- Value Until Time 1

OS:Schedule:Day,
  {58c84d1d-1a97-41e4-842a-8e258e19f477}, !- Handle
  Medium Office Electric Equipment Winter Design Day Schedule 1, !- Name
  {d4b08710-b6c2-42f2-90d8-315ef1472ac5}, !- Schedule Type Limits Name
  ,                                       !- Interpolate to Timestep
  24,                                     !- Hour 1
  0,                                      !- Minute 1
  0;                                      !- Value Until Time 1

OS:Schedule:Rule,
  {51a7309f-63ac-418a-869e-6c22a088e86e}, !- Handle
  Medium Office Electric Equipment Schedule Weekdays Rule, !- Name
  {176fad0f-24c8-4603-9693-f6b39b21d698}, !- Schedule Ruleset Name
  1,                                      !- Rule Order
  {6c80a8b0-284c-4fb0-ae23-80335751ca7a}, !- Day Schedule Name
  ,                                       !- Apply Sunday
  Yes,                                    !- Apply Monday
  Yes,                                    !- Apply Tuesday
  Yes,                                    !- Apply Wednesday
  Yes,                                    !- Apply Thursday
  Yes;                                    !- Apply Friday

OS:Schedule:Day,
  {6c80a8b0-284c-4fb0-ae23-80335751ca7a}, !- Handle
  Medium Office Electric Equipment Weekdays Schedule, !- Name
  {d4b08710-b6c2-42f2-90d8-315ef1472ac5}, !- Schedule Type Limits Name
  ,                                       !- Interpolate to Timestep
  8,                                      !- Hour 1
  0,                                      !- Minute 1
  0.4,                                    !- Value Until Time 1
  12,                                     !- Hour 2